EESchema Schematic File Version 4
EELAYER 30 0
EELAYER END
$Descr A4 11693 8268
encoding utf-8
Sheet 1 1
Title ""
Date ""
Rev ""
Comp ""
Comment1 ""
Comment2 ""
Comment3 ""
Comment4 ""
$EndDescr
$Comp
L pspice:VSOURCE V1
U 1 1 5F9ED6D7
P 1400 1700
F 0 "V1" H 1628 1746 50  0000 L CNN
F 1 "0 pwl(0US 0 99US 0 100US 5 199US 5 200US 0 499US 0 500US 5 799US 5 800US 0)" H 1628 1655 50  0000 L CNN
F 2 "" H 1400 1700 50  0001 C CNN
F 3 "~" H 1400 1700 50  0001 C CNN
	1    1400 1700
	1    0    0    -1  
$EndComp
$Comp
L power:GND #PWR0103
U 1 1 5F9EDD0B
P 1400 2000
F 0 "#PWR0103" H 1400 1750 50  0001 C CNN
F 1 "GND" H 1405 1827 50  0000 C CNN
F 2 "" H 1400 2000 50  0001 C CNN
F 3 "" H 1400 2000 50  0001 C CNN
	1    1400 2000
	1    0    0    -1  
$EndComp
$Comp
L pspice:VSOURCE V2
U 1 1 5F9EE8FF
P 1300 4800
F 0 "V2" H 1528 4846 50  0000 L CNN
F 1 "0 pwl(0US 0 299US 0 300US 3.2 399US 3.2 400US 0 599US 0 600US 3.2 699US 3.2 700US 0)" H 1528 4755 50  0000 L CNN
F 2 "" H 1300 4800 50  0001 C CNN
F 3 "~" H 1300 4800 50  0001 C CNN
	1    1300 4800
	1    0    0    -1  
$EndComp
Text GLabel 1600 4400 2    50   Input ~ 0
VBAT
Wire Wire Line
	1600 4400 1300 4400
Wire Wire Line
	1300 4400 1300 4500
$Comp
L power:GND #PWR0105
U 1 1 5F9EEF68
P 1300 5100
F 0 "#PWR0105" H 1300 4850 50  0001 C CNN
F 1 "GND" H 1305 4927 50  0000 C CNN
F 2 "" H 1300 5100 50  0001 C CNN
F 3 "" H 1300 5100 50  0001 C CNN
	1    1300 5100
	1    0    0    -1  
$EndComp
Text Notes 3200 1150 0    50   ~ 0
.tran 1u 1m
Text GLabel 1600 1250 2    50   Input ~ 0
VUSB
Wire Wire Line
	1600 1250 1400 1250
Wire Wire Line
	1400 1250 1400 1400
$Comp
L Device:R R3
U 1 1 5F9E296E
P 7600 2700
F 0 "R3" H 7670 2746 50  0000 L CNN
F 1 "100" H 7670 2655 50  0000 L CNN
F 2 "" V 7530 2700 50  0001 C CNN
F 3 "~" H 7600 2700 50  0001 C CNN
	1    7600 2700
	-1   0    0    1   
$EndComp
Text Label 7600 2500 0    50   ~ 0
Vg
$Comp
L Simulation_SPICE:DIODE D1
U 1 1 5F9E1745
P 8000 3100
F 0 "D1" H 8000 3317 50  0000 C CNN
F 1 "SS210" H 8000 3226 50  0000 C CNN
F 2 "" H 8000 3100 50  0001 C CNN
F 3 "~" H 8000 3100 50  0001 C CNN
F 4 "Y" H 8000 3100 50  0001 L CNN "Spice_Netlist_Enabled"
F 5 "D" H 8000 3100 50  0001 L CNN "Spice_Primitive"
F 6 "SS210" H 8000 3100 50  0001 C CNN "Spice_Model"
F 7 "ss210.lib" H 8000 3100 50  0001 C CNN "Spice_Lib_File"
	1    8000 3100
	1    0    0    -1  
$EndComp
Text Label 8150 3100 0    50   ~ 0
Vload
$Comp
L power:GND #PWR02
U 1 1 5F9F075A
P 9150 3250
F 0 "#PWR02" H 9150 3000 50  0001 C CNN
F 1 "GND" H 9155 3077 50  0000 C CNN
F 2 "" H 9150 3250 50  0001 C CNN
F 3 "" H 9150 3250 50  0001 C CNN
	1    9150 3250
	1    0    0    -1  
$EndComp
$Comp
L Device:R R1
U 1 1 5F9F004A
P 9150 2950
F 0 "R1" H 9220 2996 50  0000 L CNN
F 1 "1k" H 9220 2905 50  0000 L CNN
F 2 "" V 9080 2950 50  0001 C CNN
F 3 "~" H 9150 2950 50  0001 C CNN
	1    9150 2950
	1    0    0    -1  
$EndComp
$Comp
L pace:AO4407A Q1
U 1 1 5F9EA0B3
P 8850 4350
F 0 "Q1" H 9055 4304 50  0000 L CNN
F 1 "AO4407A" H 9055 4395 50  0000 L CNN
F 2 "Package_SO:SOIC-8_3.9x4.9mm_P1.27mm" H 9050 4450 50  0001 C CNN
F 3 "http://www.diodes.com/datasheets/AP1117.pdf" H 8850 4350 50  0001 C CNN
F 4 "C16072" H 8850 4350 50  0001 C CNN "LCSC"
F 5 "X" H 8850 4350 50  0001 C CNN "Spice_Primitive"
F 6 "AO4407" H 8850 4350 50  0001 C CNN "Spice_Model"
F 7 "Y" H 8850 4350 50  0001 C CNN "Spice_Netlist_Enabled"
F 8 "AO4407.mod" H 8850 4350 50  0001 C CNN "Spice_Lib_File"
F 9 "8 4 1" H 8850 4350 50  0001 C CNN "Spice_Node_Sequence"
	1    8850 4350
	0    1    -1   0   
$EndComp
Wire Wire Line
	7600 2550 7600 2400
Text GLabel 6750 3100 0    50   Input ~ 0
VUSB
Wire Wire Line
	8150 3100 8550 3100
Wire Wire Line
	6750 3100 7250 3100
$Comp
L Device:R R2
U 1 1 5FA0FF3D
P 7250 3400
F 0 "R2" H 7320 3446 50  0000 L CNN
F 1 "100k" H 7320 3355 50  0000 L CNN
F 2 "" V 7180 3400 50  0001 C CNN
F 3 "~" H 7250 3400 50  0001 C CNN
	1    7250 3400
	-1   0    0    1   
$EndComp
Wire Wire Line
	7250 3250 7250 3100
Connection ~ 7250 3100
$Comp
L power:GND #PWR01
U 1 1 5FA10665
P 7250 3750
F 0 "#PWR01" H 7250 3500 50  0001 C CNN
F 1 "GND" H 7255 3577 50  0000 C CNN
F 2 "" H 7250 3750 50  0001 C CNN
F 3 "" H 7250 3750 50  0001 C CNN
	1    7250 3750
	1    0    0    -1  
$EndComp
Wire Wire Line
	7250 3550 7250 3750
Text Notes 7950 1900 0    50   ~ 0
1 Source; 8 Drain\n
Text GLabel 6750 2100 0    50   Input ~ 0
VBAT
Wire Wire Line
	7800 2100 8550 2100
Wire Wire Line
	8550 2100 8550 3100
Text GLabel 8850 2100 2    50   Input ~ 0
VLOAD
Wire Wire Line
	8550 2100 8850 2100
Connection ~ 8550 2100
Text GLabel 9050 2650 0    50   Input ~ 0
VLOAD
Wire Wire Line
	9050 2650 9150 2650
Wire Wire Line
	9150 2650 9150 2800
Wire Wire Line
	9150 3100 9150 3250
Wire Wire Line
	7250 3100 7850 3100
Wire Wire Line
	6750 2100 7400 2100
$Comp
L power:GND #PWR03
U 1 1 5FA1BBA1
P 7600 2850
F 0 "#PWR03" H 7600 2600 50  0001 C CNN
F 1 "GND" H 7605 2677 50  0000 C CNN
F 2 "" H 7600 2850 50  0001 C CNN
F 3 "" H 7600 2850 50  0001 C CNN
	1    7600 2850
	1    0    0    -1  
$EndComp
$Comp
L pspice:MPMOS M1
U 1 1 5FA1EF3A
P 7600 2200
F 0 "M1" V 8025 2200 50  0000 C CNN
F 1 "MPMOS" V 7934 2200 50  0000 C CNN
F 2 "" H 7600 2200 50  0001 C CNN
F 3 "~" H 7600 2200 50  0001 C CNN
	1    7600 2200
	0    -1   -1   0   
$EndComp
Wire Wire Line
	7400 2000 7400 2100
Connection ~ 7400 2100
$EndSCHEMATC
