.MODEL SS210 D
+IS=3E-07 RS=0.0493239 N=2.2 EG=0.5
+XTI=0.5 BV=600 IBV=1e-05 CJO=1.36534e-10
+VJ=0.781554 M=0.743776 FC=0.5 TT=5.54918e-08
+KF=0 AF=1
