* MODELLING FOR STD26P3LLH6
 
.SUBCKT STD26P3LLH6 1 2 3
LG 2 4  4.5n
LS 12 3 4.5n
LD 6 1  2.1n
RG 4 5  1.8
RS 9 12 1E-04
RD 7 6  10.5E-03
RJ 8 7  1E-04
CGS 5 9   1.45E-09
CGD 7 10  0.7E-09
CK  11 7  0.111E-09
DGD 7 11 DGD
DBS 6 12 DBS
DBD  7 9 DBD
MOS  13 5 9 9 MOS L=1u W=1u
E1  10 5 101 0 1
E2  11 5 102 0 1
E3  13 8 POLY(2) 6 8 6 12 0 0 0 0  0.144
G1  100 0 5 7 1u
D1  101 100  DID
D2  100 102  DID
R1  101 0  1MEG
R2  102 0  1MEG
 
.MODEL MOS PMOS
+ LEVEL = 3
+ VTO   = -2.3
+ PHI   = 0.719
+ IS    = 0.1P
+ JS    = 0
+ THETA = 0.318
+ KP    = 34
+ eta   = 0.144E-02

.MODEL DGD D
+ IS    = 0.1P
+ CJO   = 0.594E-12
+ VJ    = 0.686
+ M     = 0.364
.MODEL DBD D
+ IS    = 0.1P
+ CJO   = 0.738E-12
+ VJ    = 0.804
+ M     = 0.338
.MODEL DBS D
+ IS    = 0.1P
+ BV    = 33
+ N     = 1
+ TT    = 0.133E-06
+ RS    = 0.193E-01
.MODEL DID D
+ IS    = 0.01P
+ RS    = 0
+ BV    = 35

.ENDS STD26P3LLH6
 
* END OF MODELLING

