EESchema Schematic File Version 4
EELAYER 30 0
EELAYER END
$Descr A4 11693 8268
encoding utf-8
Sheet 1 1
Title ""
Date ""
Rev ""
Comp ""
Comment1 ""
Comment2 ""
Comment3 ""
Comment4 ""
$EndDescr
$Comp
L pspice:VSOURCE V1
U 1 1 5F9ECF8E
P 2050 1950
F 0 "V1" H 2278 1996 50  0000 L CNN
F 1 "5" H 2278 1905 50  0000 L CNN
F 2 "" H 2050 1950 50  0001 C CNN
F 3 "~" H 2050 1950 50  0001 C CNN
	1    2050 1950
	1    0    0    -1  
$EndComp
$Comp
L power:GND #PWR?
U 1 1 5F9EE039
P 2050 2250
F 0 "#PWR?" H 2050 2000 50  0001 C CNN
F 1 "GND" H 2055 2077 50  0000 C CNN
F 2 "" H 2050 2250 50  0001 C CNN
F 3 "" H 2050 2250 50  0001 C CNN
	1    2050 2250
	1    0    0    -1  
$EndComp
$Comp
L Device:R R2
U 1 1 5F9EE3C5
P 6500 3950
F 0 "R2" H 6570 3996 50  0000 L CNN
F 1 "1k" H 6570 3905 50  0000 L CNN
F 2 "" V 6430 3950 50  0001 C CNN
F 3 "~" H 6500 3950 50  0001 C CNN
	1    6500 3950
	1    0    0    -1  
$EndComp
$Comp
L power:GND #PWR?
U 1 1 5F9EED59
P 6500 4350
F 0 "#PWR?" H 6500 4100 50  0001 C CNN
F 1 "GND" H 6505 4177 50  0000 C CNN
F 2 "" H 6500 4350 50  0001 C CNN
F 3 "" H 6500 4350 50  0001 C CNN
	1    6500 4350
	1    0    0    -1  
$EndComp
Wire Wire Line
	6500 4100 6500 4350
$Comp
L Device:R R1
U 1 1 5F9EF165
P 5250 3300
F 0 "R1" V 5043 3300 50  0000 C CNN
F 1 "100" V 5134 3300 50  0000 C CNN
F 2 "" V 5180 3300 50  0001 C CNN
F 3 "~" H 5250 3300 50  0001 C CNN
	1    5250 3300
	0    1    1    0   
$EndComp
Wire Wire Line
	5400 3300 5950 3300
$Comp
L pspice:VSOURCE V2
U 1 1 5F9F16E1
P 4300 3600
F 0 "V2" H 4528 3646 50  0000 L CNN
F 1 "0 sin(0 5 1000)" H 4528 3555 50  0000 L CNN
F 2 "" H 4300 3600 50  0001 C CNN
F 3 "~" H 4300 3600 50  0001 C CNN
	1    4300 3600
	1    0    0    -1  
$EndComp
$Comp
L power:GND #PWR?
U 1 1 5F9F1AC2
P 4300 3900
F 0 "#PWR?" H 4300 3650 50  0001 C CNN
F 1 "GND" H 4305 3727 50  0000 C CNN
F 2 "" H 4300 3900 50  0001 C CNN
F 3 "" H 4300 3900 50  0001 C CNN
	1    4300 3900
	1    0    0    -1  
$EndComp
Wire Wire Line
	4300 3300 5100 3300
Text Notes 4950 4500 0    50   ~ 0
.tran 1us 1ms
$Comp
L pace:AO4407A Q1
U 1 1 5F9EF2B4
P 6400 3300
F 0 "Q1" H 6605 3254 50  0000 L CNN
F 1 "AO4407A" H 6605 3345 50  0000 L CNN
F 2 "Package_SO:SOIC-8_3.9x4.9mm_P1.27mm" H 6600 3400 50  0001 C CNN
F 3 "http://www.diodes.com/datasheets/AP1117.pdf" H 6400 3300 50  0001 C CNN
F 4 "C16072" H 6400 3300 50  0001 C CNN "LCSC"
F 5 "X" H 6400 3300 50  0001 C CNN "Spice_Primitive"
F 6 "AO4407" H 6400 3300 50  0001 C CNN "Spice_Model"
F 7 "Y" H 6400 3300 50  0001 C CNN "Spice_Netlist_Enabled"
F 8 "/home/pace/eboard/sim/AO4407.mod" H 6400 3300 50  0001 C CNN "Spice_Lib_File"
F 9 "8 4 1" H 6400 3300 50  0001 C CNN "Spice_Node_Sequence"
	1    6400 3300
	1    0    0    1   
$EndComp
Wire Wire Line
	6500 3800 6500 3500
Wire Wire Line
	6500 2450 6500 3100
Text Label 4650 3300 0    50   ~ 0
Vusb
Text Label 5600 3300 0    50   ~ 0
Vg
Text Label 6500 3650 0    50   ~ 0
Vload
$Comp
L Device:R R?
U 1 1 5F9F9E7C
P 5950 3950
F 0 "R?" H 6020 3996 50  0000 L CNN
F 1 "1k" H 6020 3905 50  0000 L CNN
F 2 "" V 5880 3950 50  0001 C CNN
F 3 "~" H 5950 3950 50  0001 C CNN
	1    5950 3950
	1    0    0    -1  
$EndComp
Wire Wire Line
	5950 3800 5950 3300
Connection ~ 5950 3300
Wire Wire Line
	5950 3300 6200 3300
$Comp
L power:GND #PWR?
U 1 1 5F9FA2FC
P 5950 4350
F 0 "#PWR?" H 5950 4100 50  0001 C CNN
F 1 "GND" H 5955 4177 50  0000 C CNN
F 2 "" H 5950 4350 50  0001 C CNN
F 3 "" H 5950 4350 50  0001 C CNN
	1    5950 4350
	1    0    0    -1  
$EndComp
Wire Wire Line
	5950 4100 5950 4350
Text GLabel 6300 2450 0    50   Input ~ 0
Vbat
Wire Wire Line
	6300 2450 6500 2450
Text GLabel 2450 1450 2    50   Input ~ 0
Vbat
Wire Wire Line
	2450 1450 2050 1450
Wire Wire Line
	2050 1450 2050 1650
$EndSCHEMATC
